* Library of optocoupler models

*  Copyright Cadence Design Systems, Inc. 2002 All Rights Reserved.
*
*
* $Revision:   1.4  $
* $Author:   HIRASUNA  $
* $Date:   17 May 2002 $
* 
* $Modification History: Sripada modified on Thursday, July 20, 2006 to fix PCR 832797
*                        
* $Modification History: Added Optocoupler models on Thursday, June 19, 2008
* HCPL-2200,HCPL-2219	Hewlett Packard
* HCPL-2201,HCPL-2201,HCPL-2211,HCPL-2212,HCPL-2231,HCPL-2232,HCPL-0201,HCPL-0211	Agilent Tech.
*******************************************************************************
*.model A4N25
* 6-pin DIP: pin #1   #2   #4   #5   #6
*		      |    |    |    |    |
.subckt A4N25	pin1 pin2 pin4 pin5 pin6	params: rel_CTR=1
*		Motorola	pid=4N25
*		88-01-04 pwt
*		88-01-18 pwt	rework Cje approximation

* The data sheet used for this model is from Motorola: it was the most
* complete for DC and switching parameters, and is was easy to find the
* component IR-LED and phototransistor as separate devices for further
* specifications.
*
  d_MainLED	pin1 pin2	MainLED
  d_PhotoLED	pin1 1		PhotoLED .001
  v_PhotoLED	1 pin2		0
*
  f_TempComp	0 2		v_PhotoLED 1.7
  r_TempComp	2 0		TempComp {rel_CTR}
*
  g_BaseSrc	5 6 2 0		.9
  q_PhotoBJT	5 6 4		PhotoBJT
  r_C		5 pin5		.1
  r_B		6 pin6		.1
  r_E		4 pin4		.1
*
* Since active devices dominate pin-to-pin capacitance on each "side" of the
* optocoupler, isolation is modeled by identical capacitances and resistances
* linked to a common point; this gives isolation of .5pF and 1E+11 ohms
  c_1		pin1 7		.4p
  r_1		pin1 7		.12T
  c_2		pin2 7		.4p
  r_2		pin2 7		.12T
  c_4		pin4 7		.4p
  r_4		pin4 7		.12T
  c_5		pin5 7		.4p
  r_5		pin5 7		.12T
  c_6		pin6 7		.4p
  r_6		pin6 7		.12T
*
* Similar to Motorola MLED15.
.model MainLED  D(Is=10.01e-21 Rs=2.049 Ikf=11.84 N=1.053 Xti=3 Cjo=40p M=.34 
+                Vj=.75 Isr=30n Nr=3.8 Bv=6 Ibv=100u Tt=.5u)

* Models photon generation: same as MainLED except no AC effects, no breakdown.
.model PhotoLED D(Is=1.1p Rs=.66 Ikf=30m N=1.9 Xti=3 Cjo=0   M=.34 Vj=.75
+		Isr=30n Nr=3.8 Bv=0 Tt=0)

* Temperature compensation for system: 1.38x @ -55'C, .54x @ +100'C, all @ 10mA
* Note: the photo BJT has its own temperature corrections, which must be kept
* as the transistor is electrically available.
.model TempComp	RES(R=1 Tc1=-11.27m Tc2=43.46u)
*
* Similar to Motorola MDR3050; Hfe=325 @ Ic=500uA, Vce=5V
* Use beta variation (w/Parts) to model change in current-transfer ratio (CTR).
* Hand adjust reverse beta (Br) to match saturation characteristics.
* Set Isc to model dark current.
* Hand adjust Cjc to match fall time @ Ic=10mA (which yields rise time, too).
* Hand adjust reverse transit-time (Tr) to match storage time @ Ic=10mA.
* Delay time set by LED I-V and C-V characteristics; set Cje to 25% of Cjc,
* inspection of phototransistor chip layouts show the emitter area is 20%-25%
* that of the collector area.  The same layouts show that base resistance is
* made negligible by design; also, the operating currents are small.
* Hand adjust forward transit-time (Tf) to match MDR3050 pulse data.  Check
* against 4N25 frequency response (Fig 11, 12).
.model PhotoBJT NPN(Is=10f Xti=3 Vaf=60
+		Bf=400 Ne=3.75 Ise=580p Ikf=.26 Xtb=1.5
+		Br=.04 Nc=2    Isc=3.5n
+		Cjc=10p  Mjc=.3333 Vjc=.75 Tr=88u
+		Cje=2.5p Mje=.3333 Vje=.75 Tf=1.5n)
.ends
*$
*******************************************************************************
*.model A4N25A
* 6-pin DIP: pin #1   #2   #4   #5   #6
*                 |    |    |    |    |
.subckt A4N25A	pin1 pin2 pin4 pin5 pin6   params: rel_CTR=1
*		88-01-05 pwt
* Same as 4N25 (UL recognized).
  x1 pin1 pin2 pin4 pin5 pin6 A4N25  params:  rel_CTR={rel_CTR}
.ends
*$
*******************************************************************************
*.model A4N26
* 6-pin DIP: pin #1   #2   #4   #5   #6
*                 |    |    |    |    |
.subckt A4N26	pin1 pin2 pin4 pin5 pin6     params: rel_CTR=1
*		88-01-05 pwt
* Same as 4N25, lower isolation breakdown voltage.
  x1 pin1 pin2 pin4 pin5 pin6 A4N25      params:  rel_CTR={rel_CTR}
.ends
*$
*******************************************************************************
*.model A4N27
* 6-pin DIP: pin #1   #2   #4   #5   #6
*                 |    |    |    |    |
.subckt A4N27	pin1 pin2 pin4 pin5 pin6    params: rel_CTR=0.5
*		88-01-05 pwt
* Same as 4N25, lower CTR, lower isolation breakdown voltage.
  x1 pin1 pin2 pin4 pin5 pin6 A4N25   params:  rel_CTR={rel_CTR}
.ends
*$
*******************************************************************************
*.model A4N28
* 6-pin DIP: pin #1   #2   #4   #5   #6
*                 |    |    |    |    |
.subckt A4N28	pin1 pin2 pin4 pin5 pin6  params: rel_CTR=0.5
*		88-01-05 pwt
* Same as 4N25, lower CTR, lower isolation breakdown voltage.
  x1 pin1 pin2 pin4 pin5 pin6 A4N25    params: rel_CTR={rel_CTR}
.ends
*$
*******************************************************************************
* A = diode anode
* K = diode cathode
* C = BJT collector
* B = BJT base
* E = BJT emitter
.SUBCKT A4N32 A K C B E PARAMS: REL_CTR=1
* 4N32 from Motorola Optoelectronics data book Q3/93  -  RPerez
D1 A D Demit   ;Gallium arsenide infrared emitting diode
Vsense D K 0    ;Diode Current sense -> IF
* Gpcg models CTR 
Gpcg C B TABLE  ;Photodetector {IC@IF * (normalized CTR at IF)/(Q1 BF)
+ {70m*REL_CTR*(8.448148613*0.998979389^(1/(abs(I(Vsense))+0.1p))*
+ I(Vsense)^0.449371295)/18k} (0,0) (0.3m,0.3m)
Q1 C B V Qdtect1   ;phototransistor detector
Q2 C V E E Qdtect2   ;Darlington
.model Demit D IS=1P N=1.948621 RS=1.560495 BV=3 IBV=0.05U
+ CJO=18.8P VJ=0.532794 M=0.27985 EG=1.424 TT=500N
.model Qdtect1 NPN IS=0.625P BF=135 NF=1.0941401 BR=10 TF=0 TR=1.2u
+ CJE=8.24P VJE=0.99 MJE=0.247851 CJC=8.01P VJC=0.514483 MJC=0.370451
+ ISC=0 VAF=275 IKF=0  ISE=0.1p
.model Qdtect2 NPN IS=0.625P BF=135 NF=1.0941401 BR=10 TF=0 TR=1.2u
+ CJE=8.24P VJE=0.99 MJE=0.247851
+ ISC=0 VAF=275 IKF=0  ISE=0.1p ISS=0 CJS=3.82p VJS=0.99 MJS=0.200397
.ends
*$
*******************************************************************************
* A = diode anode
* K = diode cathode
* C = BJT collector
* B = BJT base
* E = BJT emitter
.SUBCKT A4N33 A K C B E PARAMS: REL_CTR=1
* 4N33 from Motorola Optoelectronics data book Q3/93  -  RPerez
D1 A D Demit   ;Gallium arsenide infrared emitting diode
Vsense D K 0    ;Diode Current sense -> IF
* Gpcg models CTR 
Gpcg C B TABLE  ;Photodetector {IC@IF * (normalized CTR at IF)/(Q1 BF)
+ {70m*REL_CTR*(8.448148613*0.998979389^(1/(abs(I(Vsense))+0.1p))*
+ I(Vsense)^0.449371295)/18k} (0,0) (0.3m,0.3m)
Q1 C B V Qdtect1   ;phototransistor detector
Q2 C V E E Qdtect2   ;Darlington
.model Demit D IS=1P N=1.948621 RS=1.560495 BV=3 IBV=0.05U
+ CJO=18.8P VJ=0.532794 M=0.27985 EG=1.424 TT=500N
.model Qdtect1 NPN IS=0.625P BF=135 NF=1.0941401 BR=10 TF=0 TR=1.2u
+ CJE=8.24P VJE=0.99 MJE=0.247851 CJC=8.01P VJC=0.514483 MJC=0.370451
+ ISC=0 VAF=275 IKF=0  ISE=0.1p
.model Qdtect2 NPN IS=0.625P BF=135 NF=1.0941401 BR=10 TF=0 TR=1.2u
+ CJE=8.24P VJE=0.99 MJE=0.247851
+ ISC=0 VAF=275 IKF=0  ISE=0.1p ISS=0 CJS=3.82p VJS=0.99 MJS=0.200397
.ends
*$
*******************************************************************************
* A = diode anode
* K = diode cathode
* C = BJT collector
* B = BJT base
* E = BJT emitter
.SUBCKT A4N47A A K C B E PARAMS: REL_CTR=1
* 4N47A from TI   * RAP  5/97
D1 A D Demit   ;Gallium arsenide infrared emitting diode
Vsense D K 0    ;Diode Current sense -> IF
Hd   R 0 Vsense 1
Rd   R T 10K
Cd   T 0 0.15n
* Gpcg models CTR 
Gpcg C B TABLE  ;Photodetector {IC@IF * (normalized CTR at IF)/(Q1 BF)
+ {0.75m*REL_CTR*(128393.7*0.999895312^(1/(abs(V(T))+0.1p))*V(T)^1.6857559)/300}
+ (0,0) (10,10)
Q1 C B E E Qdtect   ;phototransistor detector
.model Demit D IS=6.53E-13 N=1.983045 RS=21.26446 BV=2 IBV=10U
+ CJO=18.8P VJ=0.532794 M=0.27985 EG=1.424 TT=500N
* ISC controls dark current
* IKF controls high current gain
.model Qdtect NPN IS=20P BF=300 NF=1.3080447 BR=10 TF=7N TR=1.29u
+ CJE=3.7P VJE=0.99 MJE=0.2411274 CJC=4.03P VJC=0.597478 MJC=0.431978
+ ISC=0.01p VAF=6.5 IKF=0.5 ISS=0 CJS=2.03p VJS=0.61 MJS=0.31
.ends
*$
*******************************************************************************
* A = diode anode
* K = diode cathode
* C = BJT collector
* B = BJT base
* E = BJT emitter
.SUBCKT A4N48A A K C B E PARAMS: REL_CTR=1
* 4N48A from TI   * RAP  5/97
D1 A D Demit   ;Gallium arsenide infrared emitting diode
Vsense D K 0    ;Diode Current sense -> IF
Hd   R 0 Vsense 1
Rd   R T 10K
Cd   T 0 0.15n
* Gpcg models CTR 
Gpcg C B TABLE  ;Photodetector {IC@IF * (normalized CTR at IF)/(Q1 BF)
+ {1.2m*REL_CTR*(128393.7*0.999895312^(1/(abs(V(T))+0.1p))*V(T)^1.6857559)/300}
+ (0,0) (10,10)
Q1 C B E E Qdtect   ;phototransistor detector
.model Demit D IS=6.53E-13 N=1.983045 RS=21.26446 BV=2 IBV=10U
+ CJO=18.8P VJ=0.532794 M=0.27985 EG=1.424 TT=500N
* ISC controls dark current
* IKF controls high current gain
.model Qdtect NPN IS=20P BF=300 NF=1.3080447 BR=10 TF=7.5N TR=1.29u
+ CJE=3.7P VJE=0.99 MJE=0.2411274 CJC=4.03P VJC=0.597478 MJC=0.431978
+ ISC=0.01p VAF=6.5 IKF=0.5 ISS=0 CJS=2.03p VJS=0.61 MJS=0.31
.ends
*$
*******************************************************************************
* A = diode anode
* K = diode cathode
* C = BJT collector
* B = BJT base
* E = BJT emitter
.SUBCKT A4N49A A K C B E PARAMS: REL_CTR=1
* 4N49A from TI   * RAP  5/97
D1 A D Demit   ;Gallium arsenide infrared emitting diode
Vsense D K 0    ;Diode Current sense -> IF
Hd   R 0 Vsense 1
Rd   R T 10K
Cd   T 0 0.15n
* Gpcg models CTR 
Gpcg C B TABLE  ;Photodetector {IC@IF * (normalized CTR at IF)/(Q1 BF)
+ {1.35m*REL_CTR*(128393.7*0.999895312^(1/(abs(V(T))+0.1p))*V(T)^1.6857559)/300}
+ (0,0) (10,10)
Q1 C B E E Qdtect   ;phototransistor detector
.model Demit D IS=6.53E-13 N=1.983045 RS=21.26446 BV=2 IBV=10U
+ CJO=18.8P VJ=0.532794 M=0.27985 EG=1.424 TT=500N
* ISC controls dark current
* IKF controls high current gain
.model Qdtect NPN IS=20P BF=300 NF=1.3080447 BR=10 TF=12N TR=1.29u
+ CJE=3.7P VJE=0.99 MJE=0.2411274 CJC=4.03P VJC=0.597478 MJC=0.431978
+ ISC=0.01p VAF=6.5 IKF=0.5 ISS=0 CJS=2.03p VJS=0.61 MJS=0.31
.ends
*$
.SUBCKT and233gcp A C P  
* and233gcp from AND   * I-Team@Nikkel 12/22/00
*A=ANODE
*C=CATHODE
* P=(LIGHT) LUMINOUS INTENSITY IN CANDELAS AS O/P VOLTAGE

VDROP A A1 1
DLED A1 VC Dand233gcp
.MODEL Dand233gcp D
+ IS=4.5973E-12
+ N=1.6133
+ RS=8.1500
+ IKF=3.0400E-3
+ CJO=1.0000E-12
+ M=.3333
+ VJ=.75
+ ISR=100.00E-12
+ BV=5
+ IBV=80e-6
+ TT=5.0000E-9

*INPUT RESISTANCE
RIN P 0 1G

*POWER O/P
ELED P 0 TABLE {PWR(I(VLED),1.154699706) * EXP(2.941312876-3.505898323*I(VLED))} 
+ (0,0) (100,100)

VLED VC C
.ENDS
*$
*******************************************************************************
* A = Anode
* C = Cathode
* P = (light)Power as voltage input
.SUBCKT BPW32 A C P PARAMS: Spec=1.0 Sensy=0.5
* BPW32 from Siemens   * RAP 7/97
Rdummy P 0 1G
Rswt P LP 1k
Cswt LP 0 0.6n
DPD A C PhotoDet
GPD C A TABLE {V(LP)* Spec * Sensy} (0,0) (1,1)
.MODEL PhotoDet D IS=0.974p RS=0.1 N=1.986196 BV=7.1 IBV=0.1n 
+ CJO=99.2p VJ=0.455536 M=0.418717 TT=500n ISR=6p NR=100
.ends
*$
*******************************************************************************
* H = high
* L = low
.subckt bulb H L params: Vnom=120V Pnom=100W HCtau=4.082
*
* Tungsten Incandescent Lamp (Lightbulb)    * RAP 6/2/97 *
*
* To determine voltage, current through the terminals (H and L)
* is sensed and multiplied by the filaments instantaneous resistance.
*
Vsense  H c 0      ;terminal current sense
*
* Current is multiplied by nominal resistance and scaled to get voltage
Efilmnt c L VALUE = {I(Vsense) * V(res) * Vnom * Vnom / Pnom}
*
Gpow    0 temp VALUE = {I(Vsense) * V(H,L)}   ;instantaneous power
*
* HCtau is used to set the heat capacity time constant.  Different
* bulbs may have different time constants.
Rtherml temp ambnt {2600/Pnom} ;temperature for nominal power=2600K+300K
Ctherml temp 0 {(HCtau / 2600) * Pnom}   ;thermal capacitity
Vambnt  ambnt 0 300             ;ambient temperature in degrees Kelvin
*
* Normalized resistance as a function of temperature.
Eres res 0 TABLE {log(V(temp)/300)}
+ 0.0  0.06
+ 0.5  0.29
+ 1.0  0.56
+ 1.5  0.82
+ 2.0  0.94
+ 2.33 0.98
+ 2.405 1.04
+ 2.53 1.08
*
RGpath res 0 1Meg
.ends
*$
*******************************************************************************
* A = diode anode
* K = diode cathode
* C = BJT collector
* B = BJT base
* E = BJT emitter
.SUBCKT CNY17-1 A K C B E PARAMS: REL_CTR=1
* CNY17-1 from Motorola Optoelectronics data book Q3/93  -  RPerez
D1 A D DCNY17   ;Gallium arsenide infrared emitting diode
Vsense D K 0    ;Diode Current sense -> IF
Hd   R 0 Vsense 1
Rd   R T 10K
Cd   T 0 0.15n
* Gpcg models CTR 
Gpcg C B TABLE  ;Photodetector {IC@IF * (normalized CTR at IF)*REL_CTR/(Q1 BF)
+ {6m*(0.9277*V(T)^3-1.2381*V(T)^2+100.4332*V(T)-0.02771)*REL_CTR/400}
+ (0,0) (10,10)
Q1 C B E E QCNY17   ;phototransistor detector
.model DCNY17 D IS=1P N=1.948621 RS=1.560495 BV=6 IBV=10U
+ CJO=18.8P VJ=0.532794 M=0.27985 EG=1.424 TT=500N
* ISC controls dark current
* IKF controls high current gain
.model QCNY17 NPN IS=3.64P BF=400 NF=1.193293 BR=10 TF=2N TR=350n
+ CJE=5.16P VJE=0.99 MJE=0.2411274 CJC=18P VJC=0.597478 MJC=0.431978
+ ISC=0.207N VAF=65 IKF=0.09 ISS=0 CJS=7.74p VJS=0.61 MJS=0.31
.ends
*$
*******************************************************************************
* A = diode anode
* K = diode cathode
* C = BJT collector
* B = BJT base
* E = BJT emitter
.SUBCKT CNY17-2 A K C B E PARAMS: REL_CTR=1
* CNY17-2 from Motorola Optoelectronics data book Q3/93  -  RPerez
D1 A D DCNY17   ;Gallium arsenide infrared emitting diode
Vsense D K 0    ;Diode Current sense -> IF
Hd   R 0 Vsense 1
Rd   R T 10K
Cd   T 0 0.25n
* Gpcg models CTR 
Gpcg C B TABLE  ;Photodetector {IC@IF * (normalized CTR at IF)*REL_CTR/(Q1 BF)
+ {10m*(0.9277*V(T)^3-1.2381*V(T)^2+100.4332*V(T)-0.02771)*REL_CTR/400}
+ (0,0) (10,10)
Q1 C B E QCNY17   ;phototransistor detector
.model DCNY17 D IS=1P N=1.948621 RS=1.560495 BV=6 IBV=10U
+ CJO=18.8P VJ=0.532794 M=0.27985 EG=1.424 TT=500N
* ISC controls dark current
* IKF controls high current gain
.model QCNY17 NPN IS=3.64P BF=400 NF=1.193293 BR=10 TF=1N TR=30n
+ CJE=5.16P VJE=0.99 MJE=0.2411274 CJC=18P VJC=0.597478 MJC=0.431978
+ ISC=0.207N VAF=65 IKF=0.09 ISS=0 CJS=7.74p VJS=0.61 MJS=0.31
.ends
*$
*******************************************************************************
* A = diode anode
* K = diode cathode
* C = BJT collector
* B = BJT base
* E = BJT emitter
.SUBCKT CNY17-3 A K C B E PARAMS: REL_CTR=1
* CNY17-3 from Motorola Optoelectronics data book Q3/93  -  RPerez
D1 A D DCNY17   ;Gallium arsenide infrared emitting diode
Vsense D K 0    ;Diode Current sense -> IF
Hd   R 0 Vsense 1
Rd   R T 10K
Cd   T 0 0.27n
* Gpcg models CTR 
Gpcg C B TABLE  ;Photodetector {IC@IF * (normalized CTR at IF)/(Q1 BF)
+ {15m*(0.9277*V(T)^3-1.2381*V(T)^2+100.4332*V(T)-0.02771)*REL_CTR/400}
+ (0,0) (10,10)
Q1 C B E QCNY17   ;phototransistor detector
.model DCNY17 D IS=1P N=1.948621 RS=1.560495 BV=6 IBV=10U
+ CJO=18.8P VJ=0.532794 M=0.27985 EG=1.424 TT=500N
* ISC controls dark current
* IKF controls high current gain
.model QCNY17 NPN IS=3.64P BF=400 NF=1.193293 BR=10 TF=13N TR=375n
+ CJE=5.16P VJE=0.99 MJE=0.2411274 CJC=18P VJC=0.597478 MJC=0.431978
+ ISC=0.207N VAF=65 IKF=0.09 ISS=0 CJS=7.74p VJS=0.61 MJS=0.31
.ends
*$
.SUBCKT GL8EG2 A C P  
* GL8EG2 from SHARP   * I-Team@Nikkel 12/21/00
*A=ANODE
*C=CATHODE
* P=(LIGHT) LUMINOUS INTENSITY IN CANDELAS AS O/P VOLTAGE

VDROP A A1 1
DLED A1 VC DGL8EG2
.MODEL DGL8EG2 D
+ IS=266.83E-15
+ N=1.4390
+ RS=8.4446
+ IKF=.2567
+ CJO=35.000E-12
+ M=.3333
+ VJ=.75
+ ISR=100.00E-12
+ BV=5
+ IBV=10e-6
+ TT=5.0000E-9

*INPUT RESISTANCE
RIN P 0 1G

*POWER O/P
ELED P 0 TABLE {PWR(I(VLED),1.4072382552656)*EXP(2.5093037724975-3.03080308029885*I(VLED))} 
+ (0,0) (100,100)
VLED VC C
.ENDS
*$
.SUBCKT GL8HD2 A C P  
* GL8HD2 from SHARP   * I-Team@Nikkel 12/21/00
*A=ANODE
*C=CATHODE
* P=(LIGHT) LUMINOUS INTENSITY IN CANDELAS AS O/P VOLTAGE

VDROP A A1 1
DLED A1 VC DGL8HD2
.MODEL DGL8HD2 D
+ IS=190.25E-12
+ N=1.7735
+ RS=8.1146
+ IKF=.48615
+ CJO=20.0000E-12
+ M=.3333
+ VJ=.75
+ ISR=100.00E-12
+ BV=5
+ IBV=10e-6
+ TT=5.0000E-9

*INPUT RESISTANCE
RIN P 0 1G

*POWER O/P
ELED P 0 TABLE {PWR(I(VLED),1.725216198)*EXP(4.01457602976167-32.93224122*I(VLED))} 
+ (0,0) (100,100)

VLED VC C
.ENDS
*$
.SUBCKT GL8HY2 A C P  
* GL8HY2 from SHARP   * I-Team@Nikkel 12/21/00
*A=ANODE
*C=CATHODE
* P=(LIGHT) LUMINOUS INTENSITY IN CANDELAS AS O/P VOLTAGE

VDROP A A1 1
DLED A1 VC DGL8HY2
.MODEL DGL8HY2 D
+ IS=214.89E-12
+ N=1.8906
+ RS=7.574
+ CJO=35.0000E-12
+ M=.3333
+ VJ=.75
+ ISR=100.00E-12
+ BV=5
+ IBV=10e-6
+ TT=5.0000E-9

*INPUT RESISTANCE
RIN P 0 1G

*POWER O/P
ELED P 0 TABLE {PWR(I(VLED),1.826117513921)*EXP(3.6619780820923-32.2608264611002*I(VLED))} 
+ (0,0) (100,100) 

VLED VC C
.ENDS
*$
.SUBCKT GL8LR2 A C P 
* DGL8LR2 from SHARP   * I-Team@Nikkel  21/12/2000
*A=ANODE
*C=CATHODE
* P=(LIGHT) LUMINOUS INTENSITY IN CANDELAS AS O/P VOLTAGE

VDROP A A1 1
DLED A1 VC DGL8LR2
.MODEL DGL8LR2 D
+ IS=10.505E-18
+ N=.63632
+ RS=2.3645
+ IKF=12.202E-6
+ CJO=30.0000E-12
+ M=.3333
+ VJ=.75
+ ISR=100.00E-12
+ BV=5
+ IBV=10e-6
+ TT=5.0000E-9

*INPUT RESISTANCE
RIN P 0 1G

*POWER O/P
ELED P 0 TABLE {PWR(I(VLED),1.221867908)* EXP(1.831501407-10.60445807*I(VLED))} 
+ (0,0) (100,100)
VLED VC C
.ENDS
*$
.SUBCKT GL8TR2 A C P  
* GL8TR2 from SHARP   * I-Team@Nikkel 12/21/2000
*A=ANODE
*C=CATHODE
* P=(LIGHT) LUMINOUS INTENSITY IN CANDELAS AS O/P VOLTAGE

VDROP A A1 1
DLED A1 VC DGL8TR2
.MODEL DGL8TR2 D
+ IS=4.000E-10
+ N=1.6058
+ RS=.94694
+ IKF=.16719
+ CJO=1.0000E-12
+ M=.3333
+ VJ=.75
+ ISR=100.00E-12
+ BV=5
+ IBV=10E-6
+ TT=5.0000E-9

*INPUT RESISTANCE
RIN P 0 1G

*POWER O/P
ELED P 0 TABLE {PWR(I(VLED),1.33276461750432) * EXP(1.85978954134279-19.0992238529157*I(VLED))}
+ (0,0) (100,100) 
VLED VC C
.ENDS
*$
*******************************************************************************
*.model H11A2
* 6-pin DIP: pin #1   #2   #4   #5   #6
*                 |    |    |    |    |
.subckt H11A2	pin1 pin2 pin4 pin5 pin6    params: rel_CTR=1
*		88-01-05 pwt
* Every manufacturer seems to use their own 4N25 as an equivalent device.
  x1 pin1 pin2 pin4 pin5 pin6 A4N25     params: rel_CTR={rel_CTR}
.ends
*$
*******************************************************************************
*.model H11A3
* 6-pin DIP: pin #1   #2   #4   #5   #6
*                 |    |    |    |    |
.subckt H11A3	pin1 pin2 pin4 pin5 pin6    params: rel_CTR=1
*		88-01-05 pwt
* Same as H11A2, higher isolation breakdown voltage.
  x1 pin1 pin2 pin4 pin5 pin6 A4N25     params: rel_CTR={rel_CTR}
.ends
*$
*******************************************************************************
*.model H11A4
* 6-pin DIP: pin #1   #2   #4   #5   #6
*                 |    |    |    |    |
.subckt H11A4	pin1 pin2 pin4 pin5 pin6    params: rel_CTR=1
*		88-01-05 pwt
* Every manufacturer seems to use their own 4N27 as an equivalent device.
  x1 pin1 pin2 pin4 pin5 pin6 A4N27    params: rel_CTR={rel_CTR}
.ends
*$
*******************************************************************************
*.model H11A520
* 6-pin DIP: pin #1   #2   #4   #5   #6
*                 |    |    |    |    |
.subckt H11A520	pin1 pin2 pin4 pin5 pin6   params: rel_CTR=1
*		88-01-05 pwt
* Same as H11A2, higher isolation breakdown voltage.
  x1 pin1 pin2 pin4 pin5 pin6 A4N25     params: rel_CTR={rel_CTR}
.ends
*$
*******************************************************************************
* A = diode anode
* K = diode cathode
* C = BJT collector
* B = BJT base
* E = BJT emitter
.SUBCKT H11AV1 A K C B E PARAMS: REL_CTR=1
* H11AV1 from Motorola   * RAP  5/97
D1 A D Demit   ;Gallium arsenide infrared emitting diode
Vsense D K 0    ;Diode Current sense -> IF
Hd   R 0 Vsense 1
Rd   R T 10K
Cd   T 0 0.11n
* Gpcg models CTR 
Gpcg C B TABLE  ;Photodetector {IC@IF * (normalized CTR at IF)/(Q1 BF)
+ {15m*REL_CTR*(140.11034*0.999716761^(1/(abs(V(T))+0.1p))*V(T)^1.0873374)/400}
+ (0,0) (10,10)
Q1 C B E E Qdtect   ;phototransistor detector
.model Demit D IS=1.22p N=1.962592 RS=1.584805 BV=6 IBV=10U
+ CJO=18.8P VJ=0.532794 M=0.27985 EG=1.424 TT=500N
* ISC controls dark current
* IKF controls high current gain
.model Qdtect NPN IS=12.5P BF=400 NF=1.2742607 BR=10 TF=1.5N TR=2.2u
+ CJE=7.62P VJE=0.99 MJE=0.243609 CJC=19.64P VJC=0.445269 MJC=0.40354
+ ISC=1p VAF=100 IKF=0.17 ISS=0 CJS=5.51p VJS=0.99 MJS=0.242193
.ends
*$
*******************************************************************************
* A = diode anode
* K = diode cathode
* C = BJT collector
* B = BJT base
* E = BJT emitter
.SUBCKT H11AV2 A K C B E PARAMS: REL_CTR=1
* H11AV2 from Motorola   * RAP  5/97
D1 A D Demit   ;Gallium arsenide infrared emitting diode
Vsense D K 0    ;Diode Current sense -> IF
Hd   R 0 Vsense 1
Rd   R T 10K
Cd   T 0 0.11n
* Gpcg models CTR 
Gpcg C B TABLE  ;Photodetector {IC@IF * (normalized CTR at IF)/(Q1 BF)
+ {10m*REL_CTR*(140.11034*0.999716761^(1/(abs(V(T))+0.1p))*V(T)^1.0873374)/400}
+ (0,0) (10,10)
Q1 C B E E Qdtect   ;phototransistor detector
.model Demit D IS=1.22p N=1.962592 RS=1.584805 BV=6 IBV=10U
+ CJO=18.8P VJ=0.532794 M=0.27985 EG=1.424 TT=500N
* ISC controls dark current
* IKF controls high current gain
.model Qdtect NPN IS=12.5P BF=400 NF=1.2742607 BR=10 TF=1.5N TR=2.2u
+ CJE=7.62P VJE=0.99 MJE=0.243609 CJC=19.64P VJC=0.445269 MJC=0.40354
+ ISC=1p VAF=100 IKF=0.17 ISS=0 CJS=5.51p VJS=0.99 MJS=0.242193
.ends
*$
*******************************************************************************
* A = diode anode
* K = diode cathode
* C = BJT collector
* B = BJT base
* E = BJT emitter
.SUBCKT H11AV3 A K C B E PARAMS: REL_CTR=1
* H11AV3 from Motorola   * RAP  5/97
D1 A D Demit   ;Gallium arsenide infrared emitting diode
Vsense D K 0    ;Diode Current sense -> IF
Hd   R 0 Vsense 1
Rd   R T 10K
Cd   T 0 0.11n
* Gpcg models CTR
Gpcg C B TABLE  ;Photodetector {IC@IF * (normalized CTR at IF)/(Q1 BF)
+ {7m*REL_CTR*(140.11034*0.999716761^(1/(abs(V(T))+0.1p))*V(T)^1.0873374)/400}
+ (0,0) (10,10)
Q1 C B E E Qdtect   ;phototransistor detector
.model Demit D IS=1.22p N=1.962592 RS=1.584805 BV=6 IBV=10U
+ CJO=18.8P VJ=0.532794 M=0.27985 EG=1.424 TT=500N
* ISC controls dark current
* IKF controls high current gain
.model Qdtect NPN IS=12.5P BF=400 NF=1.2742607 BR=20 TF=1.5N TR=2.2u
+ CJE=7.62P VJE=0.99 MJE=0.243609 CJC=19.64P VJC=0.445269 MJC=0.40354
+ ISC=1p VAF=100 IKF=0.07 ISS=0 CJS=5.51p VJS=0.99 MJS=0.242193
.ends
*$
.SUBCKT hlmp-1550 A C P  
* hlmp-1550 from agilent   *I-Team@Nikkel 01/12/01
*A=ANODE
*C=CATHODE
* P=(LIGHT) LUMINOUS INTENSITY IN CANDELAS AS O/P VOLTAGE

VDROP A A1 1
DLED A1 VC dhlmp-1550
.MODEL dhlmp-1550 D
+ IS=33.962E-9
+ N=2.9468
+ RS=15.395
+ IKF=30.596E-9
+ CJO=18.000E-12
+ M=.3333
+ VJ=.75
+ ISR=100.00E-12
+ BV=6
+ IBV=100e-6
+ TT=5.0000E-9

*INPUT RESISTANCE
RIN P 0 1G

*POWER O/P
ELED P 0 TABLE {PWR(I(VLED),1.29882713564194) * EXP(0.685942287951934-3.79024376270614*I(VLED))} 
+ (0,0) (100,100)

VLED VC C
.ENDS
*$
.SUBCKT hlmp-1450 A C P  
* hlmp-1450 from agilent   * I-Team@Nikkel 01/12/01
*A=ANODE
*C=CATHODE
* P=(LIGHT) LUMINOUS INTENSITY IN CANDELAS AS O/P VOLTAGE

VDROP A A1 1
DLED A1 VC dhlmp-1450
.MODEL dhlmp-1450 D
+ IS=13.455E-21
+ N=1.2696
+ RS=16.400
+ IKF=21.453E-9
+ CJO=15.000E-12
+ M=.3333
+ VJ=.75
+ ISR=100.00E-12
+ BV=6
+ IBV=100e-6
+ TT=5.0000E-9

*INPUT RESISTANCE
RIN P 0 1G

*POWER O/P
ELED P 0 TABLE {PWR(I(VLED),1.35060143903103) * EXP(0.959693465832234-3.67730892288602*I(VLED))} 
+ (0,0) (100,100)

VLED VC C
.ENDS
*$
.SUBCKT hlmp-1350 A C P 
* hlmp-1350 from agilent   * I-Team@Nikkel 01/12/01
*A=ANODE
*C=CATHODE
* P=(LIGHT) LUMINOUS INTENSITY IN CANDELAS AS O/P VOLTAGE

VDROP A A1 1
DLED A1 VC dhlmp-1350
.MODEL dhlmp-1350 D
+ IS=23.452E-12
+ N=1.1543
+ RS=20.511
+ IKF=67.112E-3
+ CJO=11.000E-12
+ M=.3333
+ VJ=.75
+ ISR=100.00E-12
+ BV=6
+ IBV=100e-6
+ TT=5.0000E-9

*INPUT RESISTANCE
RIN P 0 1G

*POWER O/P
ELED P 0 TABLE {PWR(I(VLED),1.35624938074234) * EXP(0.989618279101155-3.67725943585378*I(VLED))} 
+ (0,0) (100,100)

VLED VC C
.ENDS
*$
*******************************************************************************
* A - Anode of LED
* C - Cathode of LED
* A1 - Anode of photodetector 1
* C1 - Cathode of photodetector 1
* A2 - Anode of photodetector 2
* C2 - Cathode of photodetector 2
* K1 - Servo gain
* K2 - Forward gain
* K3 - Transfer gain
.Subckt IL300 A C A1 C1 A2 C2 PARAMS:  K1=0.007  K2=0.007   K3=1
* IL300 from Siemens   * RAP 5/97
DLED A E Demit
VE   E C 0
E2 D1 0 TABLE  ; {Ip2 vs IF}
+ {(0.955414823*0.999409809^(1/(abs(I(VE))+0.1p))*I(VE)^0.963133681)}
+ (0,0) (1,1)
Rdly1 D1 D2 1K
Cdly1 D2 0 0.17N
Rdly2 D2 D3 1K
Cdly2 D3 0 0.17N
Gdly1 C1 A1 VALUE {K1*V(D3)}
D1 A1 C1 Dtect
RD1 A1 C1 15G
Gdly2 C2 A2 VALUE {K3*K2*V(D3)}
D2 A2 C2 Dtect
RD2 A2 C2 15G
.model Demit D IS=1.51E-16 N=1.495822 RS=2.624361 BV=5 IBV=1U
+ CJO=15P VJ=1 M=0.5 EG=1.424 TT=500N
.model Dtect D IS=0.5p N=1 RS=0.001 BV=50 IBV=1U
+ CJO=14P VJ=0.159621 M=0.344264 EG=1.11 TT=10N
.ends
*$
.SUBCKT Ld271hl A C P  
* ld271hl from Infineon    * I-Team@Nikkel 12/26/00
*A=ANODE
*C=CATHODE
* P=(LIGHT) RADIANT INTENSITY IN MILLI-WATT PER STERADIAN AS O/P VOLTAGE

VDROP A A1 1
DLED A1 VC DLD271hl
.MODEL Dld271hl D
+ IS=2.2926E-6
+ N=1.0356
*+ RS=.41769
+ RS=.39669
+ IKF=27.950E-6
+ CJO=40.000E-12
+ M=.3333
+ VJ=.75
+ ISR=100.00E-12
+ BV=5.9
+ IBV=10e-9
+ TT=5.0000E-9

*INPUT RESISTANCE
RIN P 0 1G

*POWER O/P
ELED P 0 TABLE {PWR(I(VLED),1.00452426475604)* EXP(-1.81016727330456-0.161381001927477*I(VLED))} 
+ (0,0) (100,100)

VLED VC C
.ENDS
*$
.SUBCKT ld271L A C P  
* ld271L from Infineon    * I-Team@Nikkel 12/26/00
*A=ANODE
*C=CATHODE
* P=(LIGHT) RADIANT INTENSITY IN MILLI-WATT PER STERADIAN AS O/P VOLTAGE

VDROP A A1 1
DLED A1 VC DLD271l
.MODEL Dld271l D
+ IS=2.2926E-6
+ N=1.0356
*+ RS=.41769
+ RS=.39669
+ IKF=27.950E-6
+ CJO=40.000E-12
+ M=.3333
+ VJ=.75
+ ISR=100.00E-12
+ BV=5.9
+ IBV=10e-9
+ TT=5.0000E-9

*INPUT RESISTANCE
RIN P 0 1G

*POWER O/P
ELED P 0 TABLE {PWR(I(VLED),1.00457531056358)* EXP(-1.87443499446845-0.161490657519673*I(VLED))} 
+ (0,0) (100,100)

VLED VC C
.ENDS
*$
.SUBCKT LYS260 A C P  
* LYS260 from Infineon    * I-Team@Nikkel 12/28/00
*A=ANODE
*C=CATHODE
* P=(LIGHT) LUMINOUS INTENSITY IN CANDELAS AS O/P VOLTAGE

VDROP A A1 1
DLED A1 VC DLYS260
.MODEL DLYS260 D
+ IS=10.000E-16
+ N=.57883
+ RS=18.515
+ IKF=926.47E-15
+ CJO=10.000E-12
+ M=.3333
+ VJ=.75
+ ISR=100.00E-12
+ BV=5.9
+ IBV=0.1e-6
+ TT=5.0000E-9


*INPUT RESISTANCE
RIN P 0 1G

*POWER O/P
ELED P 0 TABLE {PWR(I(VLED),1.48970682128464)*EXP(-1.11226836208524-4.56219691786145*I(VLED))} 
+ (0,0) (100,100)

VLED VC C
.ENDS
*$
.SUBCKT LSS260 A C P  
* LSS260 from Infineon   * I-Team@Nikkel 12/28/00
*A=ANODE
*C=CATHODE
* P=(LIGHT) LUMINOUS INTENSITY IN CANDELAS AS O/P VOLTAGE

VDROP A A1 1
DLED A1 VC DLSS260
.MODEL Dlss260 D
+ IS=10.000E-16
+ N=.57883
+ RS=18.515
+ IKF=926.47E-15
+ CJO=12.000E-12
+ M=.3333
+ VJ=.75
+ ISR=100.00E-12
+ BV=5.9
+ IBV=.1e-6
+ TT=5.0000E-9


*INPUT RESISTANCE
RIN P 0 1G

*POWER O/P
ELED P 0 TABLE {PWR(I(VLED),1.46333963894078)*EXP(-1.25152567826497-2.08062350002561*I(VLED))} 
+ (0,0) (100,100)

VLED VC C
.ENDS
*$
.SUBCKT LGS260 A C P  
* LGS260 from Infineon    * I-Team@Nikkel 12/28/00
*A=ANODE
*C=CATHODE
* P=(LIGHT) LUMINOUS INTENSITY IN CANDELAS AS O/P VOLTAGE

VDROP A A1 1
DLED A1 VC DLGS260
.MODEL DLGS260 D
+ IS=10.000E-16
+ N=.57883
+ RS=18.515
+ IKF=926.47E-15
+ CJO=15.000E-12
+ M=.3333
+ VJ=.75
+ ISR=100.00E-12
+ BV=5.9
+ IBV=.1e-6
+ TT=5.0000E-9


*INPUT RESISTANCE
RIN P 0 1G

*POWER O/P
ELED P 0 TABLE {PWR(I(VLED),1.35577459654179)*EXP(-1.35666072828088-22.9579253100891*I(VLED))} 
+ (0,0) (100,100)

VLED VC C
.ENDS
*$
.SUBCKT ld275-2 A C P  
* LD275-2 from Infineon    * I-Team@Nikkel 12/27/00
*A=ANODE
*C=CATHODE
* P=(LIGHT) RADIANT INTENSITY IN MILLI-WATTS PER STERADIAN AS O/P VOLTAGE

VDROP A A1 1
DLED A1 VC DLD275-2
.MODEL Dld275-2 D
+ IS=55.440E-7
+ N=1.9469
+ RS=.42192
+ IKF=17.359
+ CJO=25.000E-12
+ M=.3333
+ VJ=.75
+ ISR=100.00E-12
+ BV=5.9
+ IBV=10e-9
+ TT=5.0000E-9

*INPUT RESISTANCE
RIN P 0 1G

*POWER O/P
ELED P 0 TABLE {PWR(I(VLED),1.00292580500791)*EXP(-1.48321164288067-0.17742936426499*I(VLED))} 
+ (0,0) (100,100)
VLED VC C
.ENDS
*$
.SUBCKT ld275-1 A C P  
* LD275-1 from Infineon    * I-Team@Nikkel 12/27/00
*A=ANODE
*C=CATHODE
* P=(LIGHT) RADIANT INTENSITY IN MILLI-WATTS PER STERADIAN AS O/P VOLTAGE

VDROP A A1 1
DLED A1 VC DLD275-1
.MODEL Dld275-1 D
+ IS=55.440E-7
+ N=1.9469
+ RS=.42192
+ IKF=17.359
+ CJO=25.000E-12
+ M=.3333
+ VJ=.75
+ ISR=100.00E-12
+ BV=5.9
+ IBV=10e-9
+ TT=5.0000E-9

*INPUT RESISTANCE
RIN P 0 1G

*POWER O/P
ELED P 0 TABLE {PWR(I(VLED),1.00638154051524)*EXP(-1.92688406371462-0.193167058432479*I(VLED))} 
+ (0,0) (100,100)
VLED VC C
.ENDS
*$
.SUBCKT LD274-3 A C P  
* LD274-3 from Infineon    * I-Team@Nikkel 12/27/00
*A=ANODE
*C=CATHODE
* P=(LIGHT) RADIANT INTENSITY IN MILLI-WATTS PER STERADIAN AS O/P VOLTAGE

VDROP A A1 1
DLED A1 VC DLD274-3
.MODEL Dld274-3 D
+ IS=55.440E-7
+ N=1.9469
+ RS=.42192
+ IKF=17.359
+ CJO=25.000E-12
+ M=.3333
+ VJ=.75
+ ISR=100.00E-12
+ BV=5.9
+ IBV=10e-9
+ TT=5.0000E-9

*INPUT RESISTANCE
RIN P 0 1G

*POWER O/P
ELED P 0 TABLE {PWR(I(VLED),1.00731197073315)*EXP(-0.0274438923815402-0.195482759202276*I(VLED))} 
+ (0,0) (100,100)
VLED VC C
.ENDS
*$
.SUBCKT LD274-2 A C P  
* LD274-2 from Infineon    * I-Team@Nikkel 12/27/00
*A=ANODE
*C=CATHODE
* P=(LIGHT) RADIANT INTENSITY IN MILLI-WATTS PER STERADIAN AS O/P VOLTAGE

VDROP A A1 1
DLED A1 VC DLD274-2
.MODEL Dld274-2 D
+ IS=55.440E-7
+ N=1.9469
+ RS=.42192
+ IKF=17.359
+ CJO=25.000E-12
+ M=.3333
+ VJ=.75
+ ISR=100.00E-12
+ BV=5.9
+ IBV=10e-9
+ TT=5.0000E-9

*INPUT RESISTANCE
RIN P 0 1G

*POWER O/P
ELED P 0 TABLE {PWR(I(VLED),1.0063627173309)*EXP(-0.317511849736292-0.193101928800229*I(VLED))} 
+ (0,0) (100,100)
VLED VC C
.ENDS
*$
.SUBCKT LD274 A C P  
* LD274 from Infineon    * I-Team@Nikkel 12/27/00
*A=ANODE
*C=CATHODE
* P=(LIGHT) RADIANT INTENSITY IN MILLI-WATTS PER STERADIAN AS O/P VOLTAGE

VDROP A A1 1